/*--------------------------------*- C++ -*----------------------------------*\
| =========                 |                                                 |
| \\      /  F ield         | OpenFOAM: The Open Source CFD Toolbox           |
|  \\    /   O peration     | Version:  2.1.1                                 |
|   \\  /    A nd           | Web:      www.OpenFOAM.org                      |
|    \\/     M anipulation  |                                                 |
\*---------------------------------------------------------------------------*/
FoamFile
{
    version         2.0;
    format          ascii;
    class           dictionary;
    object          blockMeshDict;
}
// * * * * * * * * * * * * * * * * * * * * * * * * * * * * * * * * * * * * * //

convertToMeters 1;

vertices
(
  
    ( -1.85 -0.75 0)
    ( 4.45 -0.75  0) 
    ( 4.45  0.75  0)
    ( -1.85  0.75 0)
    ( -1.85 -0.75 1)
    ( 4.45  -0.75 1)
    ( 4.45  0.75  1)
    ( -1.85  0.75 1)
      
    


);

blocks
(
    hex (0 1 2 3 4 5 6 7) (120 55 50) simpleGrading (1 1 2)
);

edges
(
);

boundary
(
    outlet
    {
        type patch;
        faces
        (
            (1 2 6 5)
        );
    }
    sides
    {
        type wall;
        faces
        (
            (0 1 5 4)
            (3 7 6 2)
        );
    }
    inlet
    {
        type patch;
        faces
        (
            (0 4 7 3)
        );
    }
    ground
    {
        type wall;
        faces
        (
           (0 3 2 1)
        );
    }
    top
    {
        type patch;
        faces
        (
            (4 5 6 7)
        );
    }

    
);

mergePatchPairs
(
);


// ************************************************************************* //
