/*--------------------------------*- C++ -*----------------------------------*\
  =========                 |
  \\      /  F ield         | OpenFOAM: The Open Source CFD Toolbox
   \\    /   O peration     | Website:  https://openfoam.org
    \\  /    A nd           | Version:  7
     \\/     M anipulation  |
\*---------------------------------------------------------------------------*/
FoamFile
{
    version     2.0;
    format      ascii;
    class       polyBoundaryMesh;
    location    "constant/polyMesh";
    object      boundary;
}
// * * * * * * * * * * * * * * * * * * * * * * * * * * * * * * * * * * * * * //

6
(
    outlet
    {
        type            patch;
        nFaces          2750;
        startFace       10059475;
    }
    sides
    {
        type            wall;
        inGroups        List<word> 1(wall);
        nFaces          12000;
        startFace       10062225;
    }
    inlet
    {
        type            patch;
        nFaces          2750;
        startFace       10074225;
    }
    ground
    {
        type            wall;
        inGroups        List<word> 1(wall);
        nFaces          29631;
        startFace       10076975;
    }
    top
    {
        type            patch;
        nFaces          6600;
        startFace       10106606;
    }
    buildings
    {
        type            wall;
        inGroups        List<word> 1(wall);
        nFaces          183984;
        startFace       10113206;
    }
)

// ************************************************************************* //
