/*--------------------------------*- C++ -*----------------------------------*\
| =========                 |                                                 |
| \\      /  F ield         | OpenFOAM: The Open Source CFD Toolbox           |
|  \\    /   O peration     | Version:  2.3.0                                 |
|   \\  /    A nd           | Web:      www.OpenFOAM.org                      |
|    \\/     M anipulation  |                                                 |
\*---------------------------------------------------------------------------*/
FoamFile
{
    version     2.0;
    format      binary;
    class       polyBoundaryMesh;
    location    "constant/polyMesh";
    object      boundary;
}
// * * * * * * * * * * * * * * * * * * * * * * * * * * * * * * * * * * * * * //

6
(
    outlet
    {
        type            patch;
        nFaces          2750;
        startFace       10061260;
    }
    sides
    {
        type            patch;
        nFaces          12000;
        startFace       10064010;
    }
    inlet
    {
        type            patch;
        nFaces          2750;
        startFace       10076010;
    }
    ground
    {
        type            wall;
        inGroups        1(wall);
        nFaces          29631;
        startFace       10078760;
    }
    top
    {
        type            patch;
        nFaces          6600;
        startFace       10108391;
    }
    buildings
    {
        type            wall;
        inGroups        1(wall);
        nFaces          183984;
        startFace       10114991;
    }
)

// ************************************************************************* //
