/*--------------------------------*- C++ -*----------------------------------*\
  =========                 |
  \\      /  F ield         | OpenFOAM: The Open Source CFD Toolbox
   \\    /   O peration     | Website:  https://openfoam.org
    \\  /    A nd           | Version:  7
     \\/     M anipulation  |
\*---------------------------------------------------------------------------*/
FoamFile
{
    version     2.0;
    format      ascii;
    class       extendedFeatureEdgeMesh;
    location    "constant/extendedFeatureEdgeMesh";
    object      building_half.extendedFeatureEdgeMesh;
}
// * * * * * * * * * * * * * * * * * * * * * * * * * * * * * * * * * * * * * //

// points

31
(
(-0.0500001 -0.075 0.125)
(0.0499999 -0.075 0.125)
(-0.05 -0.075 1.30337e-07)
(0.05 -0.075 1.46629e-07)
(0.0499999 -1.35526e-05 0.125)
(0.05 -0.01025 0.00850001)
(0.05 -0.06475 0.00850001)
(0.05 -0.04775 0.00850001)
(0.05 -0.02725 0.00850001)
(0.05 -0.06475 0.00150001)
(0.05 -0.04775 1.46629e-07)
(0.05 -0.01025 1.46629e-07)
(0.05 -0.04775 0.00150001)
(0.05 -0.02725 0.00150001)
(0.05 -0.01025 0.00150001)
(0.05 -0.000188514 0.00150001)
(-0.0500001 -1.35526e-05 0.125)
(0.05 -0.00019064 1.46629e-07)
(0.05 -0.000190638 1.46629e-07)
(-0.05 -0.000190631 1.30337e-07)
(0.0499999 -0.000159055 0.02229)
(0.05 -0.06475 1.46629e-07)
(0.05 -0.02725 1.46629e-07)
(0.05 -0.000183646 0.0049373)
(0.05 -0.000178598 0.00850001)
(0.05 -0.0001888 0.00129881)
(0.05 -0.000188882 0.00123983)
(0.05 -0.000189558 0.000763948)
(-0.05 -0.000101976 0.0625851)
(-9.09716e-06 -1.35526e-05 0.125)
(0.05 -0.075 0.00850001)
)

// edges

39
(
(0 2)
(30 1)
(1 0)
(3 30)
(4 1)
(0 16)
(11 10)
(17 10)
(18 10)
(2 3)
(20 4)
(6 7)
(8 5)
(9 6)
(3 21)
(10 22)
(22 11)
(7 12)
(12 9)
(21 10)
(13 8)
(5 14)
(23 24)
(15 23)
(14 13)
2{15}
(25 15)
(26 25)
(27 26)
(16 28)
(11 17)
(17 18)
(18 27)
(24 20)
(29 16)
(4 29)
(28 19)
(19 2)
(14 15)
)

// concaveStart mixedStart nonFeatureStart
2 2 20
// internalStart flatStart openStart multipleStart
9 9 9 38
// normals

34
(
(1 0 -0)
(0 0 0)
(1 0 0)
(-1.42809e-13 -1 8.76553e-07)
(1 4.45144e-08 5.07716e-07)
(1 -0 5.11627e-07)
(1 0 5.11627e-07)
(1 0 -0)
(1 0 0)
(0 0 0)
(1 0 0)
(1 0 0)
(1 0 0)
(1 0 -0)
(1 0 0)
(1 0 0)
(1 0 0)
(1 0 0)
(1 0 0)
(-1 0 -4.77486e-07)
(0 0 0)
(0 0 0)
(1 0 0)
(1 -0 5.4029e-07)
(0 0 1)
(-2.9797e-07 1.98646e-07 1)
(-1 1.07878e-09 -4.76192e-07)
(-1 0 -4.76837e-07)
(7.45058e-08 -1 3.55271e-14)
(9.5298e-15 -1 -6.39534e-08)
(1 0 5.11627e-07)
(-1.49012e-07 0 1)
(1 0 5.11627e-07)
(1 0 0)
)

// normal volume types

34
(
0
0
0
0
0
0
0
0
0
0
0
0
0
0
0
0
0
0
0
0
0
0
0
0
0
0
0
0
0
0
0
0
0
0
)

// normalDirections

39
(
2(1 -1)
2(1 -1)
2(1 -1)
2(1 -1)
2(1 -1)
2(1 -1)
2{-1}
2{-1}
2{-1}
1(1)
1(1)
1(1)
1(1)
1(1)
1(1)
1(-1)
1(-1)
1(1)
1(1)
1(1)
1(1)
1(1)
1(1)
1(1)
1(1)
1(-1)
1(1)
1(1)
1(1)
1(1)
1(-1)
1(-1)
1(1)
1(1)
1(1)
1(1)
1(1)
1(1)
4(1 -1 -1 -1)
)

// edgeNormals

39
(
2(28 27)
2(29 30)
2(29 31)
2(3 8)
2(32 31)
2(19 24)
2(9 20)
2(20 21)
2(21 33)
1(3)
1(4)
1(5)
1(6)
1(7)
1(8)
1(9)
1(9)
1(10)
1(11)
1(12)
1(13)
1(14)
1(15)
1(0)
1(16)
1(1)
1(2)
1(17)
1(18)
1(19)
1(20)
1(21)
1(22)
1(23)
1(24)
1(25)
1(26)
1(27)
4(0 1 1 2)
)

// featurePointNormals

20
(
3(28 27 31)
3(29 30 31)
2(28 27)
2(3 8)
2(32 31)
1(6)
1(5)
1(5)
1(6)
1(7)
4(9 20 21 33)
2(9 20)
1(10)
1(13)
2(14 1)
2(0 1)
2(19 24)
2(20 21)
2(21 33)
1(26)
)

// featurePointEdges

20
(
3(2 5 0)
3(1 4 2)
3(0 9 37)
3(3 9 14)
3(4 10 35)
2(12 21)
2(11 13)
2(11 17)
2(12 20)
2(13 18)
5(6 7 8 15 19)
3(6 16 30)
2(17 18)
2(20 24)
3(38 21 24)
5(38 23 25 25 26)
3(5 29 34)
3(7 30 31)
3(8 31 32)
2(36 37)
)

// regionEdges

30
(
38
9
10
11
12
13
14
15
16
17
18
19
20
21
22
23
24
25
26
27
28
29
30
31
32
33
34
35
36
37
)



// ************************************************************************* //
