/*--------------------------------*- C++ -*----------------------------------*\
  =========                 |
  \\      /  F ield         | OpenFOAM: The Open Source CFD Toolbox
   \\    /   O peration     | Website:  https://openfoam.org
    \\  /    A nd           | Version:  7
     \\/     M anipulation  |
\*---------------------------------------------------------------------------*/
FoamFile
{
    version     2.0;
    format      ascii;
    class       extendedFeatureEdgeMesh;
    location    "constant/extendedFeatureEdgeMesh";
    object      B11.extendedFeatureEdgeMesh;
}
// * * * * * * * * * * * * * * * * * * * * * * * * * * * * * * * * * * * * * //

// points

168
(
(-0.55 0.325 4.88762e-08)
(-0.65 0.325 3.25841e-08)
(-0.65 0.325 0.125)
(-0.55 0.325 0.125)
(-0.55 0.175 4.88762e-08)
(-0.65 0.175 3.25841e-08)
(-0.55 0.175 0.125)
(-0.65 0.175 0.125)
(0.05 -0.175 1.46629e-07)
(0.05 -0.325 1.46629e-07)
(-0.05 -0.325 1.30337e-07)
(-0.05 -0.175 1.30337e-07)
(0.0499999 -0.175 0.125)
(0.0499999 -0.325 0.125)
(-0.0500001 -0.175 0.125)
(-0.0500001 -0.325 0.125)
(-0.25 0.075 9.77524e-08)
(-0.25 -0.075 9.77524e-08)
(-0.25 -0.075 0.125)
(-0.25 0.075 0.125)
(-0.15 0.075 1.14044e-07)
(-0.15 -0.075 1.14044e-07)
(-0.15 0.075 0.125)
(-0.15 -0.075 0.125)
(-0.35 0.325 8.14603e-08)
(-0.35 0.175 8.14603e-08)
(-0.45 0.175 6.51683e-08)
(-0.45 0.325 6.51683e-08)
(-0.35 0.325 0.125)
(-0.35 0.175 0.125)
(-0.45 0.325 0.125)
(-0.45 0.175 0.125)
(0.05 0.325 1.46629e-07)
(0.05 0.175 1.46629e-07)
(-0.05 0.175 1.30337e-07)
(-0.05 0.325 1.30337e-07)
(0.05 0.325 0.125)
(0.05 0.175 0.125)
(-0.05 0.325 0.125)
(-0.05 0.175 0.125)
(-0.35 0.075 8.14603e-08)
(-0.35 -0.075 8.14603e-08)
(-0.45 -0.075 6.51683e-08)
(-0.45 0.075 6.51683e-08)
(-0.35 0.075 0.125)
(-0.35 -0.075 0.125)
(-0.45 0.075 0.125)
(-0.45 -0.075 0.125)
(0.25 -0.0750001 0.125)
(0.25 0.0749999 0.125)
(0.15 0.075 0.125)
(0.15 -0.075 0.125)
(0.25 -0.0750001 1.79213e-07)
(0.25 0.0749999 1.79213e-07)
(0.15 -0.075 1.62921e-07)
(0.15 0.075 1.62921e-07)
(-0.75 0.075 1.62921e-08)
(-0.75 -0.075 1.62921e-08)
(-0.85 -0.075 0)
(-0.85 0.075 0)
(-0.75 0.075 0.125)
(-0.75 -0.075 0.125)
(-0.85 0.075 0.125)
(-0.85 -0.075 0.125)
(0.25 -0.325 1.79213e-07)
(0.25 -0.175 1.79213e-07)
(0.25 -0.175 0.125)
(0.25 -0.325 0.125)
(0.15 -0.325 1.62921e-07)
(0.15 -0.175 1.62921e-07)
(0.15 -0.325 0.125)
(0.15 -0.175 0.125)
(-0.75 -0.325 0.125)
(-0.75 -0.175 0.125)
(-0.85 -0.175 0.125)
(-0.85 -0.325 0.125)
(-0.75 -0.325 1.62921e-08)
(-0.75 -0.175 1.62921e-08)
(-0.85 -0.325 0)
(-0.85 -0.175 0)
(-0.15 0.325 1.14044e-07)
(-0.15 0.175 1.14044e-07)
(-0.25 0.175 9.77524e-08)
(-0.25 0.325 9.77524e-08)
(-0.15 0.325 0.125)
(-0.15 0.175 0.125)
(-0.25 0.325 0.125)
(-0.25 0.175 0.125)
(-0.55 -0.175 4.88762e-08)
(-0.65 -0.175 3.25841e-08)
(-0.65 -0.175 0.125)
(-0.55 -0.175 0.125)
(-0.55 -0.325 4.88762e-08)
(-0.65 -0.325 3.25841e-08)
(-0.55 -0.325 0.125)
(-0.65 -0.325 0.125)
(-0.15 -0.175 1.14044e-07)
(-0.15 -0.325 1.14044e-07)
(-0.25 -0.325 9.77524e-08)
(-0.25 -0.175 9.77524e-08)
(-0.15 -0.175 0.125)
(-0.15 -0.325 0.125)
(-0.25 -0.175 0.125)
(-0.25 -0.325 0.125)
(0.45 0.325 2.11797e-07)
(0.45 0.175 2.11797e-07)
(0.35 0.175 1.95505e-07)
(0.35 0.325 1.95505e-07)
(0.45 0.325 0.125)
(0.45 0.175 0.125)
(0.35 0.325 0.125)
(0.35 0.175 0.125)
(0.45 -0.175 2.11797e-07)
(0.45 -0.325 2.11797e-07)
(0.35 -0.325 1.95505e-07)
(0.35 -0.175 1.95505e-07)
(0.45 -0.175 0.125)
(0.45 -0.325 0.125)
(0.35 -0.175 0.125)
(0.35 -0.325 0.125)
(-0.75 0.325 1.62921e-08)
(-0.75 0.175 1.62921e-08)
(-0.85 0.175 0)
(-0.85 0.325 0)
(-0.75 0.325 0.125)
(-0.75 0.175 0.125)
(-0.85 0.325 0.125)
(-0.85 0.175 0.125)
(0.25 0.325 1.79213e-07)
(0.25 0.175 1.79213e-07)
(0.15 0.175 1.62921e-07)
(0.15 0.325 1.62921e-07)
(0.25 0.325 0.125)
(0.25 0.175 0.125)
(0.15 0.325 0.125)
(0.15 0.175 0.125)
(-0.35 -0.175 8.14603e-08)
(-0.35 -0.325 8.14603e-08)
(-0.45 -0.325 6.51683e-08)
(-0.45 -0.175 6.51683e-08)
(-0.35 -0.175 0.125)
(-0.35 -0.325 0.125)
(-0.45 -0.175 0.125)
(-0.45 -0.325 0.125)
(0.45 0.0749999 2.11797e-07)
(0.35 0.0749999 1.95505e-07)
(0.35 0.0749999 0.125)
(0.45 0.0749999 0.125)
(0.45 -0.0750001 2.11797e-07)
(0.35 -0.0750001 1.95505e-07)
(0.45 -0.0750001 0.125)
(0.35 -0.0750001 0.125)
(-0.65 -0.075 3.25841e-08)
(-0.55 -0.075 4.88762e-08)
(-0.55 -0.075 0.125)
(-0.65 -0.075 0.125)
(-0.65 0.075 3.25841e-08)
(-0.55 0.075 4.88762e-08)
(-0.55 0.075 0.125)
(-0.65 0.075 0.125)
(-0.05 0.075 1.30337e-07)
(-0.05 -0.075 1.30337e-07)
(-0.0500001 -0.075 0.125)
(-0.0500001 0.075 0.125)
(0.05 0.075 1.46629e-07)
(0.05 -0.075 1.46629e-07)
(0.0499999 0.075 0.125)
(0.0499999 -0.075 0.125)
)

// edges

252
(
(0 1)
(1 2)
(3 0)
(2 3)
(0 4)
(4 5)
(5 1)
(3 6)
(6 4)
(2 7)
(7 6)
(5 7)
(8 9)
(9 10)
(11 8)
(10 11)
(8 12)
(13 9)
(12 13)
(11 14)
(14 12)
(10 15)
(15 14)
(13 15)
(16 17)
(17 18)
(19 16)
(18 19)
(16 20)
(20 21)
(21 17)
(20 22)
(22 23)
(23 21)
(19 22)
(18 23)
(24 25)
(25 26)
(27 24)
(26 27)
(24 28)
(29 25)
(28 29)
(27 30)
(30 28)
(26 31)
(31 30)
(29 31)
(32 33)
(33 34)
(35 32)
(34 35)
(32 36)
(37 33)
(36 37)
(35 38)
(38 36)
(34 39)
(39 38)
(37 39)
(40 41)
(41 42)
(43 40)
(42 43)
(40 44)
(45 41)
(44 45)
(43 46)
(46 44)
(42 47)
(47 46)
(45 47)
(48 49)
(49 50)
(51 48)
(50 51)
(48 52)
(52 53)
(53 49)
(52 54)
(54 55)
(55 53)
(51 54)
(50 55)
(56 57)
(57 58)
(59 56)
(58 59)
(56 60)
(61 57)
(60 61)
(59 62)
(62 60)
(58 63)
(63 62)
(61 63)
(64 65)
(65 66)
(67 64)
(66 67)
(64 68)
(69 65)
(68 69)
(67 70)
(70 68)
(66 71)
(71 70)
(69 71)
(72 73)
(73 74)
(75 72)
(74 75)
(72 76)
(76 77)
(77 73)
(76 78)
(78 79)
(79 77)
(75 78)
(74 79)
(80 81)
(81 82)
(83 80)
(82 83)
(80 84)
(85 81)
(84 85)
(83 86)
(86 84)
(82 87)
(87 86)
(85 87)
(88 89)
(89 90)
(91 88)
(90 91)
(88 92)
(92 93)
(93 89)
(91 94)
(94 92)
(90 95)
(95 94)
(93 95)
(96 97)
(97 98)
(99 96)
(98 99)
(96 100)
(101 97)
(100 101)
(99 102)
(102 100)
(98 103)
(103 102)
(101 103)
(104 105)
(105 106)
(107 104)
(106 107)
(104 108)
(109 105)
(108 109)
(107 110)
(110 108)
(106 111)
(111 110)
(109 111)
(112 113)
(113 114)
(115 112)
(114 115)
(112 116)
(117 113)
(116 117)
(115 118)
(118 116)
(114 119)
(119 118)
(117 119)
(120 121)
(121 122)
(123 120)
(122 123)
(120 124)
(125 121)
(124 125)
(123 126)
(126 124)
(122 127)
(127 126)
(125 127)
(128 129)
(129 130)
(131 128)
(130 131)
(128 132)
(133 129)
(132 133)
(131 134)
(134 132)
(130 135)
(135 134)
(133 135)
(136 137)
(137 138)
(139 136)
(138 139)
(136 140)
(141 137)
(140 141)
(139 142)
(142 140)
(138 143)
(143 142)
(141 143)
(144 145)
(145 146)
(147 144)
(146 147)
(144 148)
(148 149)
(149 145)
(147 150)
(150 148)
(146 151)
(151 150)
(149 151)
(152 153)
(153 154)
(155 152)
(154 155)
(156 157)
(152 156)
(157 153)
(157 158)
(158 154)
(156 159)
(159 158)
(155 159)
(160 161)
(161 162)
(163 160)
(162 163)
(160 164)
(164 165)
(165 161)
(164 166)
(166 167)
(167 165)
(163 166)
(162 167)
)

// concaveStart mixedStart nonFeatureStart
168 168 168
// internalStart flatStart openStart multipleStart
252 252 252 252
// normals

252
(
(0 1 0)
(1.62921e-07 0 -1)
(-1 0 0)
(-0 1 0)
(1 -0 4.76837e-07)
(-1.49012e-07 0 1)
(1.62921e-07 0 -1)
(0 -1 0)
(-1 0 0)
(1 0 4.76837e-07)
(-1.49012e-07 0 1)
(0 -1 0)
(1.62921e-07 0 -1)
(1 -0 4.76837e-07)
(0 -1 0)
(1.62921e-07 0 -1)
(0 1 0)
(-1 -0 -4.76837e-07)
(-0 1 0)
(1 0 4.76837e-07)
(-1.49012e-07 0 1)
(-1 0 -4.76837e-07)
(0 -1 0)
(-1.49012e-07 0 1)
(-1 -0 -4.76837e-07)
(1.62921e-07 0 -1)
(0 -1 0)
(-1 0 -4.76837e-07)
(0 1 0)
(-1.49012e-07 0 1)
(1.62921e-07 0 -1)
(1 -0 4.76837e-07)
(0 -1 0)
(-0 1 0)
(1 0 4.76837e-07)
(-1.49012e-07 0 1)
(1.62921e-07 0 -1)
(1 -0 2.38419e-07)
(0 -1 0)
(1.62921e-07 0 -1)
(0 1 0)
(-1 -0 -2.38419e-07)
(-0 1 0)
(1 0 2.38419e-07)
(-1.49012e-07 0 1)
(-1 0 -2.38419e-07)
(0 -1 0)
(-1.49012e-07 0 1)
(1.62921e-07 0 -1)
(1 0 0)
(-1.49012e-07 -1 0)
(1.62921e-07 0 -1)
(0 1 0)
(-1 0 0)
(-0 1 0)
(1 0 0)
(-1.49012e-07 0 1)
(-1 0 0)
(-1.49012e-07 -1 0)
(-1.49012e-07 0 1)
(1.62921e-07 -3.23694e-14 -1)
(1 -1.98682e-07 2.38419e-07)
(0 -1 0)
(1.62921e-07 -3.23694e-14 -1)
(0 1 0)
(-1 1.98682e-07 0)
(-0 1 0)
(1 0 0)
(-1.49012e-07 0 1)
(-1 0 -2.38419e-07)
(0 -1 0)
(-1.49012e-07 0 1)
(-1.49011e-07 0 1)
(1 0 0)
(2.98023e-07 1 0)
(-1.49011e-07 0 1)
(-2.98023e-07 -1 -1.42108e-13)
(-1 0 -4.76837e-07)
(-2.98023e-07 -1 0)
(1 0 0)
(1.62921e-07 0 -1)
(1.62921e-07 0 -1)
(-1 -0 -4.76837e-07)
(2.98023e-07 1 1.42109e-13)
(1.62921e-07 -6.47389e-14 -1)
(1 -3.97364e-07 4.76837e-07)
(0 -1 0)
(1.62921e-07 0 -1)
(0 1 0)
(-1 -0 -4.76837e-07)
(-0 1 0)
(1 0 0)
(-1.49012e-07 0 1)
(-1 0 -4.76837e-07)
(0 -1 0)
(-1.49012e-07 0 1)
(1 0 0)
(1.62921e-07 0 -1)
(-0 1 0)
(1 0 0)
(0 -1 0)
(-1.49011e-07 0 1)
(1.62921e-07 0 -1)
(0 1 0)
(-1 -0 -4.76837e-07)
(0 -1 0)
(-1.49011e-07 0 1)
(-1 0 -4.76837e-07)
(-1.49012e-07 0 1)
(1 0 0)
(-0 1 0)
(-1.49012e-07 0 1)
(0 -1 0)
(-1 0 -4.76837e-07)
(0 -1 0)
(1 0 0)
(1.62921e-07 0 -1)
(1.62921e-07 0 -1)
(-1 -0 -4.76837e-07)
(0 1 0)
(1.62921e-07 0 -1)
(1 0 0)
(0 -1 0)
(1.62921e-07 0 -1)
(0 1 0)
(-1 0 0)
(-0 1 0)
(1 0 0)
(-1.49012e-07 0 1)
(-1 0 0)
(0 -1 0)
(-1.49012e-07 0 1)
(0 1 0)
(1.62921e-07 0 -1)
(-1 0 -4.76837e-07)
(-0 1 0)
(1 0 0)
(-1.49012e-07 0 1)
(1.62921e-07 0 -1)
(0 -1 0)
(-1 -0 -4.76837e-07)
(1 0 0)
(-1.49012e-07 0 1)
(0 -1 0)
(1.62921e-07 0 -1)
(1 -0 4.76837e-07)
(-5.96047e-07 -1 -2.84217e-13)
(1.62921e-07 0 -1)
(5.96047e-07 1 2.84217e-13)
(-1 -0 -4.76837e-07)
(5.96047e-07 1 2.84217e-13)
(1 0 4.76837e-07)
(-1.49012e-07 0 1)
(-1 0 -4.76837e-07)
(-5.96047e-07 -1 -2.84217e-13)
(-1.49012e-07 0 1)
(1.62921e-07 0 -1)
(1 0 0)
(0 -1 0)
(1.62921e-07 0 -1)
(0 1 0)
(-1 0 0)
(-0 1 0)
(1 0 0)
(-1.49012e-07 0 1)
(-1 0 0)
(0 -1 0)
(-1.49012e-07 0 1)
(1.62921e-07 0 -1)
(1 0 0)
(0 -1 0)
(1.62921e-07 0 -1)
(0 1 0)
(-1 0 0)
(-0 1 0)
(1 0 0)
(-1.49012e-07 0 1)
(-1 0 0)
(0 -1 0)
(-1.49012e-07 0 1)
(1.62921e-07 0 -1)
(1 -0 4.76837e-07)
(0 -1 0)
(1.62921e-07 0 -1)
(0 1 0)
(-1 0 0)
(-0 1 0)
(1 0 4.76837e-07)
(-1.49012e-07 0 1)
(-1 0 0)
(0 -1 0)
(-1.49012e-07 0 1)
(1.62921e-07 0 -1)
(1 0 0)
(0 -1 0)
(1.62921e-07 0 -1)
(2.98023e-07 1 0)
(-1 0 0)
(2.98023e-07 1 0)
(1 0 0)
(-1.49012e-07 0 1)
(-1 0 0)
(0 -1 0)
(-1.49012e-07 0 1)
(1.62921e-07 0 -1)
(1 0 0)
(0 -1 0)
(1.62921e-07 0 -1)
(0 1 0)
(-1 -0 -2.38419e-07)
(-0 1 0)
(1 -1.98682e-07 2.38419e-07)
(-1.49012e-07 2.9606e-14 1)
(-1 1.98682e-07 0)
(0 -1 0)
(-1.49012e-07 2.9606e-14 1)
(0 1 0)
(1.62921e-07 0 -1)
(-1 0 0)
(-0 1 0)
(1 0 0)
(-1.49012e-07 0 1)
(1.62921e-07 0 -1)
(0 -1 0)
(-1 0 0)
(1 0 0)
(-1.49012e-07 0 1)
(0 -1 0)
(0 -1 0)
(1.62921e-07 -6.47389e-14 -1)
(1 0 0)
(0 -1 0)
(-1 -0 -4.76837e-07)
(-1.49012e-07 5.92119e-14 1)
(1.62921e-07 0 -1)
(0 1 0)
(1 -3.97364e-07 4.76837e-07)
(-0 1 0)
(-1.49012e-07 0 1)
(-1 3.97364e-07 0)
(-1 -0 -4.76837e-07)
(1.62921e-07 0 -1)
(0 -1 0)
(-1 0 -4.76837e-07)
(0 1 0)
(-1.49012e-07 0 1)
(1.62921e-07 0 -1)
(1 -0 4.76837e-07)
(0 -1 0)
(-0 1 0)
(1 0 4.76837e-07)
(-1.49012e-07 0 1)
)

// normal volume types

252
(
0
0
0
0
0
0
0
0
0
0
0
0
0
0
0
0
0
0
0
0
0
0
0
0
0
0
0
0
0
0
0
0
0
0
0
0
0
0
0
0
0
0
0
0
0
0
0
0
0
0
0
0
0
0
0
0
0
0
0
0
0
0
0
0
0
0
0
0
0
0
0
0
0
0
0
0
0
0
0
0
0
0
0
0
0
0
0
0
0
0
0
0
0
0
0
0
0
0
0
0
0
0
0
0
0
0
0
0
0
0
0
0
0
0
0
0
0
0
0
0
0
0
0
0
0
0
0
0
0
0
0
0
0
0
0
0
0
0
0
0
0
0
0
0
0
0
0
0
0
0
0
0
0
0
0
0
0
0
0
0
0
0
0
0
0
0
0
0
0
0
0
0
0
0
0
0
0
0
0
0
0
0
0
0
0
0
0
0
0
0
0
0
0
0
0
0
0
0
0
0
0
0
0
0
0
0
0
0
0
0
0
0
0
0
0
0
0
0
0
0
0
0
0
0
0
0
0
0
0
0
0
0
0
0
0
0
0
0
0
0
0
0
0
0
0
0
0
0
0
0
0
0
)

// normalDirections

252
(
2(1 -1)
2(1 -1)
2(1 -1)
2(1 -1)
2(1 -1)
2(1 -1)
2(1 -1)
2(1 -1)
2(1 -1)
2(1 -1)
2(1 -1)
2(1 -1)
2(1 -1)
2(1 -1)
2(1 -1)
2(1 -1)
2(1 -1)
2(1 -1)
2(1 -1)
2(1 -1)
2(1 -1)
2(1 -1)
2(1 -1)
2(1 -1)
2(1 -1)
2(1 -1)
2(1 -1)
2(1 -1)
2(1 -1)
2(1 -1)
2(1 -1)
2(1 -1)
2(1 -1)
2(1 -1)
2(1 -1)
2(1 -1)
2(1 -1)
2(1 -1)
2(1 -1)
2(1 -1)
2(1 -1)
2(1 -1)
2(1 -1)
2(1 -1)
2(1 -1)
2(1 -1)
2(1 -1)
2(1 -1)
2(1 -1)
2(1 -1)
2(1 -1)
2(1 -1)
2(1 -1)
2(1 -1)
2(1 -1)
2(1 -1)
2(1 -1)
2(1 -1)
2(1 -1)
2(1 -1)
2(1 -1)
2(1 -1)
2(1 -1)
2(1 -1)
2(1 -1)
2(1 -1)
2(1 -1)
2(1 -1)
2(1 -1)
2(1 -1)
2(1 -1)
2(1 -1)
2(1 -1)
2(1 -1)
2(1 -1)
2(1 -1)
2(1 -1)
2(1 -1)
2(1 -1)
2(1 -1)
2(1 -1)
2(1 -1)
2(1 -1)
2(1 -1)
2(1 -1)
2(1 -1)
2(1 -1)
2(1 -1)
2(1 -1)
2(1 -1)
2(1 -1)
2(1 -1)
2(1 -1)
2(1 -1)
2(1 -1)
2(1 -1)
2(1 -1)
2(1 -1)
2(1 -1)
2(1 -1)
2(1 -1)
2(1 -1)
2(1 -1)
2(1 -1)
2(1 -1)
2(1 -1)
2(1 -1)
2(1 -1)
2(1 -1)
2(1 -1)
2(1 -1)
2(1 -1)
2(1 -1)
2(1 -1)
2(1 -1)
2(1 -1)
2(1 -1)
2(1 -1)
2(1 -1)
2(1 -1)
2(1 -1)
2(1 -1)
2(1 -1)
2(1 -1)
2(1 -1)
2(1 -1)
2(1 -1)
2(1 -1)
2(1 -1)
2(1 -1)
2(1 -1)
2(1 -1)
2(1 -1)
2(1 -1)
2(1 -1)
2(1 -1)
2(1 -1)
2(1 -1)
2(1 -1)
2(1 -1)
2(1 -1)
2(1 -1)
2(1 -1)
2(1 -1)
2(1 -1)
2(1 -1)
2(1 -1)
2(1 -1)
2(1 -1)
2(1 -1)
2(1 -1)
2(1 -1)
2(1 -1)
2(1 -1)
2(1 -1)
2(1 -1)
2(1 -1)
2(1 -1)
2(1 -1)
2(1 -1)
2(1 -1)
2(1 -1)
2(1 -1)
2(1 -1)
2(1 -1)
2(1 -1)
2(1 -1)
2(1 -1)
2(1 -1)
2(1 -1)
2(1 -1)
2(1 -1)
2(1 -1)
2(1 -1)
2(1 -1)
2(1 -1)
2(1 -1)
2(1 -1)
2(1 -1)
2(1 -1)
2(1 -1)
2(1 -1)
2(1 -1)
2(1 -1)
2(1 -1)
2(1 -1)
2(1 -1)
2(1 -1)
2(1 -1)
2(1 -1)
2(1 -1)
2(1 -1)
2(1 -1)
2(1 -1)
2(1 -1)
2(1 -1)
2(1 -1)
2(1 -1)
2(1 -1)
2(1 -1)
2(1 -1)
2(1 -1)
2(1 -1)
2(1 -1)
2(1 -1)
2(1 -1)
2(1 -1)
2(1 -1)
2(1 -1)
2(1 -1)
2(1 -1)
2(1 -1)
2(1 -1)
2(1 -1)
2(1 -1)
2(1 -1)
2(1 -1)
2(1 -1)
2(1 -1)
2(1 -1)
2(1 -1)
2(1 -1)
2(1 -1)
2(1 -1)
2(1 -1)
2(1 -1)
2(1 -1)
2(1 -1)
2(1 -1)
2(1 -1)
2(1 -1)
2(1 -1)
2(1 -1)
2(1 -1)
2(1 -1)
2(1 -1)
2(1 -1)
2(1 -1)
2(1 -1)
2(1 -1)
2(1 -1)
2(1 -1)
2(1 -1)
2(1 -1)
2(1 -1)
2(1 -1)
2(1 -1)
2(1 -1)
2(1 -1)
2(1 -1)
2(1 -1)
2(1 -1)
)

// edgeNormals

252
(
2(0 1)
2(0 2)
2(3 4)
2(3 5)
2(6 4)
2(6 7)
2(1 8)
2(9 5)
2(9 7)
2(10 2)
2(10 11)
2(8 11)
2(12 13)
2(12 14)
2(15 16)
2(15 17)
2(13 18)
2(19 14)
2(19 20)
2(16 21)
2(18 20)
2(17 22)
2(21 23)
2(22 23)
2(24 25)
2(24 26)
2(27 28)
2(27 29)
2(25 28)
2(30 31)
2(30 32)
2(31 33)
2(34 35)
2(34 32)
2(33 35)
2(29 26)
2(36 37)
2(36 38)
2(39 40)
2(39 41)
2(37 42)
2(43 38)
2(43 44)
2(40 45)
2(42 44)
2(41 46)
2(45 47)
2(46 47)
2(48 49)
2(48 50)
2(51 52)
2(51 53)
2(49 54)
2(55 50)
2(55 56)
2(52 57)
2(54 56)
2(53 58)
2(57 59)
2(58 59)
2(60 61)
2(60 62)
2(63 64)
2(63 65)
2(61 66)
2(67 62)
2(67 68)
2(64 69)
2(66 68)
2(65 70)
2(69 71)
2(70 71)
2(72 73)
2(72 74)
2(75 76)
2(75 77)
2(73 78)
2(79 80)
2(79 74)
2(80 78)
2(81 82)
2(81 83)
2(76 82)
2(77 83)
2(84 85)
2(84 86)
2(87 88)
2(87 89)
2(85 90)
2(91 86)
2(91 92)
2(88 93)
2(90 92)
2(89 94)
2(93 95)
2(94 95)
2(96 97)
2(96 98)
2(99 100)
2(99 101)
2(97 100)
2(102 103)
2(102 104)
2(105 106)
2(105 104)
2(101 98)
2(106 107)
2(103 107)
2(108 109)
2(108 110)
2(111 112)
2(111 113)
2(109 114)
2(115 116)
2(115 110)
2(116 114)
2(117 118)
2(117 119)
2(112 118)
2(113 119)
2(120 121)
2(120 122)
2(123 124)
2(123 125)
2(121 126)
2(127 122)
2(127 128)
2(124 129)
2(126 128)
2(125 130)
2(129 131)
2(130 131)
2(132 133)
2(132 134)
2(135 136)
2(135 137)
2(138 136)
2(138 139)
2(133 140)
2(141 137)
2(141 139)
2(142 134)
2(142 143)
2(140 143)
2(144 145)
2(144 146)
2(147 148)
2(147 149)
2(145 150)
2(151 146)
2(151 152)
2(148 153)
2(150 152)
2(149 154)
2(153 155)
2(154 155)
2(156 157)
2(156 158)
2(159 160)
2(159 161)
2(157 162)
2(163 158)
2(163 164)
2(160 165)
2(162 164)
2(161 166)
2(165 167)
2(166 167)
2(168 169)
2(168 170)
2(171 172)
2(171 173)
2(169 174)
2(175 170)
2(175 176)
2(172 177)
2(174 176)
2(173 178)
2(177 179)
2(178 179)
2(180 181)
2(180 182)
2(183 184)
2(183 185)
2(181 186)
2(187 182)
2(187 188)
2(184 189)
2(186 188)
2(185 190)
2(189 191)
2(190 191)
2(192 193)
2(192 194)
2(195 196)
2(195 197)
2(193 198)
2(199 194)
2(199 200)
2(196 201)
2(198 200)
2(197 202)
2(201 203)
2(202 203)
2(204 205)
2(204 206)
2(207 208)
2(207 209)
2(205 210)
2(211 206)
2(211 212)
2(208 213)
2(210 212)
2(209 214)
2(213 215)
2(214 215)
2(216 217)
2(216 218)
2(219 220)
2(219 221)
2(222 220)
2(222 223)
2(217 224)
2(225 221)
2(225 223)
2(226 218)
2(226 227)
2(224 227)
2(228 229)
2(228 230)
2(231 232)
2(231 233)
2(234 235)
2(234 232)
2(229 236)
2(236 237)
2(230 238)
2(235 239)
2(237 238)
2(239 233)
2(240 241)
2(240 242)
2(243 244)
2(243 245)
2(241 244)
2(246 247)
2(246 248)
2(247 249)
2(250 251)
2(250 248)
2(249 251)
2(245 242)
)

// featurePointNormals

168
(
3(0 1 4)
3(0 1 2)
3(0 2 5)
3(3 4 5)
3(6 4 7)
3(6 7 8)
3(9 5 7)
3(10 2 11)
3(12 13 16)
3(12 13 14)
3(12 14 17)
3(15 16 17)
3(13 18 20)
3(19 14 20)
3(16 21 20)
3(17 22 23)
3(24 25 28)
3(24 25 26)
3(24 26 29)
3(27 28 29)
3(25 28 31)
3(30 31 32)
3(31 33 35)
3(34 35 32)
3(36 37 40)
3(36 37 38)
3(36 38 41)
3(39 40 41)
3(37 42 44)
3(43 38 44)
3(40 45 44)
3(41 46 47)
3(48 49 52)
3(48 49 50)
3(48 50 53)
3(51 52 53)
3(49 54 56)
3(55 50 56)
3(52 57 56)
3(53 58 59)
3(60 61 64)
3(60 61 62)
3(60 62 65)
3(63 64 65)
3(61 66 68)
3(67 62 68)
3(64 69 68)
3(65 70 71)
3(72 73 76)
3(72 73 74)
3(72 74 77)
3(75 76 77)
3(73 78 80)
3(79 80 74)
3(80 78 82)
3(81 82 83)
3(84 85 88)
3(84 85 86)
3(84 86 89)
3(87 88 89)
3(85 90 92)
3(91 86 92)
3(88 93 92)
3(89 94 95)
3(96 97 100)
3(96 97 98)
3(96 98 101)
3(99 100 101)
3(97 100 104)
3(102 103 104)
3(105 106 104)
3(101 98 107)
3(108 109 112)
3(108 109 110)
3(108 110 113)
3(111 112 113)
3(109 114 116)
3(115 116 110)
3(116 114 118)
3(117 118 119)
3(120 121 124)
3(120 121 122)
3(120 122 125)
3(123 124 125)
3(121 126 128)
3(127 122 128)
3(124 129 128)
3(125 130 131)
3(132 133 136)
3(132 133 134)
3(132 134 137)
3(135 136 137)
3(138 136 139)
3(138 139 140)
3(141 137 139)
3(142 134 143)
3(144 145 148)
3(144 145 146)
3(144 146 149)
3(147 148 149)
3(145 150 152)
3(151 146 152)
3(148 153 152)
3(149 154 155)
3(156 157 160)
3(156 157 158)
3(156 158 161)
3(159 160 161)
3(157 162 164)
3(163 158 164)
3(160 165 164)
3(161 166 167)
3(168 169 172)
3(168 169 170)
3(168 170 173)
3(171 172 173)
3(169 174 176)
3(175 170 176)
3(172 177 176)
3(173 178 179)
3(180 181 184)
3(180 181 182)
3(180 182 185)
3(183 184 185)
3(181 186 188)
3(187 182 188)
3(184 189 188)
3(185 190 191)
3(192 193 196)
3(192 193 194)
3(192 194 197)
3(195 196 197)
3(193 198 200)
3(199 194 200)
3(196 201 200)
3(197 202 203)
3(204 205 208)
3(204 205 206)
3(204 206 209)
3(207 208 209)
3(205 210 212)
3(211 206 212)
3(208 213 212)
3(209 214 215)
3(216 217 220)
3(216 217 218)
3(216 218 221)
3(219 220 221)
3(222 220 223)
3(222 223 224)
3(225 221 223)
3(226 218 227)
3(228 229 232)
3(228 229 230)
3(228 230 233)
3(231 232 233)
3(234 235 232)
3(234 235 236)
3(236 237 238)
3(235 239 238)
3(240 241 244)
3(240 241 242)
3(240 242 245)
3(243 244 245)
3(241 244 247)
3(246 247 248)
3(247 249 251)
3(250 251 248)
)

// featurePointEdges

168
(
3(2 4 0)
3(0 6 1)
3(3 9 1)
3(2 7 3)
3(4 8 5)
3(6 11 5)
3(7 10 8)
3(9 11 10)
3(14 16 12)
3(12 17 13)
3(15 21 13)
3(14 19 15)
3(18 20 16)
3(17 23 18)
3(20 22 19)
3(22 23 21)
3(26 28 24)
3(24 30 25)
3(27 35 25)
3(26 34 27)
3(29 31 28)
3(29 33 30)
3(32 34 31)
3(32 35 33)
3(38 40 36)
3(36 41 37)
3(39 45 37)
3(38 43 39)
3(42 44 40)
3(41 47 42)
3(44 46 43)
3(46 47 45)
3(50 52 48)
3(48 53 49)
3(51 57 49)
3(50 55 51)
3(54 56 52)
3(53 59 54)
3(56 58 55)
3(58 59 57)
3(62 64 60)
3(60 65 61)
3(63 69 61)
3(62 67 63)
3(66 68 64)
3(65 71 66)
3(68 70 67)
3(70 71 69)
3(74 76 72)
3(72 78 73)
3(75 83 73)
3(74 82 75)
3(77 79 76)
3(77 81 78)
3(80 82 79)
3(80 83 81)
3(86 88 84)
3(84 89 85)
3(87 93 85)
3(86 91 87)
3(90 92 88)
3(89 95 90)
3(92 94 91)
3(94 95 93)
3(98 100 96)
3(96 101 97)
3(99 105 97)
3(98 103 99)
3(102 104 100)
3(101 107 102)
3(103 106 104)
3(106 107 105)
3(110 112 108)
3(108 114 109)
3(111 119 109)
3(110 118 111)
3(113 115 112)
3(113 117 114)
3(116 118 115)
3(116 119 117)
3(122 124 120)
3(120 125 121)
3(123 129 121)
3(122 127 123)
3(126 128 124)
3(125 131 126)
3(128 130 127)
3(130 131 129)
3(134 136 132)
3(132 138 133)
3(135 141 133)
3(134 139 135)
3(136 140 137)
3(138 143 137)
3(139 142 140)
3(141 143 142)
3(146 148 144)
3(144 149 145)
3(147 153 145)
3(146 151 147)
3(150 152 148)
3(149 155 150)
3(152 154 151)
3(154 155 153)
3(158 160 156)
3(156 161 157)
3(159 165 157)
3(158 163 159)
3(162 164 160)
3(161 167 162)
3(164 166 163)
3(166 167 165)
3(170 172 168)
3(168 173 169)
3(171 177 169)
3(170 175 171)
3(174 176 172)
3(173 179 174)
3(176 178 175)
3(178 179 177)
3(182 184 180)
3(180 185 181)
3(183 189 181)
3(182 187 183)
3(186 188 184)
3(185 191 186)
3(188 190 187)
3(190 191 189)
3(194 196 192)
3(192 197 193)
3(195 201 193)
3(194 199 195)
3(198 200 196)
3(197 203 198)
3(200 202 199)
3(202 203 201)
3(206 208 204)
3(204 209 205)
3(207 213 205)
3(206 211 207)
3(210 212 208)
3(209 215 210)
3(212 214 211)
3(214 215 213)
3(218 220 216)
3(216 222 217)
3(219 225 217)
3(218 223 219)
3(220 224 221)
3(222 227 221)
3(223 226 224)
3(225 227 226)
3(230 233 228)
3(228 234 229)
3(231 236 229)
3(230 239 231)
3(232 237 233)
3(234 235 232)
3(236 238 235)
3(238 239 237)
3(242 244 240)
3(240 246 241)
3(243 251 241)
3(242 250 243)
3(245 247 244)
3(245 249 246)
3(248 250 247)
3(248 251 249)
)

// regionEdges
0()


// ************************************************************************* //
