/*--------------------------------*- C++ -*----------------------------------*\
  =========                 |
  \\      /  F ield         | OpenFOAM: The Open Source CFD Toolbox
   \\    /   O peration     | Website:  https://openfoam.org
    \\  /    A nd           | Version:  7
     \\/     M anipulation  |
\*---------------------------------------------------------------------------*/
FoamFile
{
    version     2.0;
    format      ascii;
    class       volScalarField;
    object      k;
}
// * * * * * * * * * * * * * * * * * * * * * * * * * * * * * * * * * * * * * //

#include        "ABLConditions"

dimensions      [0 2 -2 0 0 0 0];

internalField   uniform $ki;

boundaryField
{
    inlet
    {
        type            kABL;
        flowDir	       $flowDir;
        zDir            $zDir;
        Uref            $Uref;
        Zref            $Zref;
	A	       $Atke;	
	B	       $Btke;
	C	       $Ctke;
	D	       $Dtke;
	E	       $Etke;
        z0             $z0;
		BW			   $BW;
		hABL		   $hABL;
	ustar		$ustar;
	betaStarMax 		$betaStarMax;
        value 	       $internalField;
    }

    top
    {
        type            kABL;
        flowDir	       $flowDir;
        zDir            $zDir;
        Uref            $Uref;
        Zref            $Zref;
	A	       $Atke;	
	B	       $Btke;
	C	       $Ctke;
	D	       $Dtke;
	E	       $Etke;
        z0             $z0;
		BW			   $BW;
		hABL		   $hABL;
	ustar		$ustar;
	betaStarMax 		$betaStarMax;
        value 	       $internalField;
    }

    outlet
    {
        type            zeroGradient;
    }

    sides
    {
        type            kqRWallFunction;
        value 	       $internalField;
    }

    ground
    {
        type            kqRWallFunction;
        value 	       $internalField;
    }

    building_half
    {
        type            kqRWallFunction;
        value 	       $internalField;
    }

    sources_half
    {
        type            kqRWallFunction;
        value 	       $internalField;
    }
	
	symmetry
	{
		type			symmetry;
	}


}


// ************************************************************************* //
