/*--------------------------------*- C++ -*----------------------------------*\
| =========                 |                                                 |
| \\      /  F ield         | OpenFOAM: The Open Source CFD Toolbox           |
|  \\    /   O peration     | Version:  2.1.1                                 |
|   \\  /    A nd           | Web:      www.OpenFOAM.org                      |
|    \\/     M anipulation  |                                                 |
\*---------------------------------------------------------------------------*/
FoamFile
{
    version         2.0;
    format          ascii;
    class           dictionary;
    object          blockMeshDict;
}
// * * * * * * * * * * * * * * * * * * * * * * * * * * * * * * * * * * * * * //

convertToMeters 1;
/*
vertices
(
    // Bloc 0
    (-1.14 -0.97 0)
    (0 -0.97 0)
    (0 0 0)
    (-1.14 0 0)
    (-1.14 -0.97 1)
    (0 -0.97 1)
    (0 0 1)
    (-1.14 0 1)
    (3.78 -0.97 0) 
    (3.78 0 0)
    (3.78 -0.97 1)
    (3.78 0 1)
    (0 0.97 0)    
    (-1.14 0.97 0)
    (0 0.97 1)
    (-1.14 0.97 1)
    (3.78 0.97 0)
    (3.78 0.97 1)

   
      
);

blocks
(
    hex (0 1 2 3 4 5 6 7) (50 50 55) simpleGrading (0.25 0.25 4)
    hex (3 2 12 13 7 6 14 15) (50 50 55) simpleGrading (0.25 4 4)
    hex (1 8 9 2 5 10 11 6) (130 50 55) simpleGrading (4 0.25 4)
    hex (2 9 16 12 6 11 17 14) (130 50 55) simpleGrading (4 4 4)
);*/



vertices
(
    // Bloc 0
    (-1 -0.75 0)
    (0 -0.75 0)
    (0 0 0)
    (-1 0 0)
    (-1 -0.75 1)
    (0 -0.75 1)
    (0 0 1)
    (-1 0 1)
    (1 -0.75 0) 
    (1 0 0)
    (1 -0.75 1)
    (1 0 1)
    //(0 0.75 0)    
    //(-1 0.75 0)
    //(0 0.75 1)
    //(-1 0.75 1)
    //(1 0.75 0)
    //(1 0.75 1)
    (3 -0.75 0)
    (3 0 0)
    (3 -0.75 1)
    (3 0 1)
    //(3 0.75 0)
    //(3 0.75 1)
      
);

blocks
(
    hex (0 1 2 3 4 5 6 7) (82 82 72) simpleGrading (0.8 0.8 3)
    //hex (3 2 12 13 7 6 14 15) (82 82 72) simpleGrading (0.8 1.25 3)
    hex (1 8 9 2 5 10 11 6) (82 82 72) simpleGrading (1.25 0.8 3)
    //hex (2 9 16 12 6 11 17 14) (82 82 72) simpleGrading (1.25 1.25 3)
    hex (8 12 13 9 10 14 15 11) (88 82 72) simpleGrading (2 0.8 3)
    //hex (9 19 22 16 11 21 23 17) (88 82 72) simpleGrading (2 1.25 3)
);



edges
(
);

boundary
(
    outlet
    {
        type patch;
        faces
        (
            (12 13 15 14)
            //(19 22 23 21)
        );
    }
    sides
    {
        type wall;
        faces
        (
            (0 1 5 4)
            (1 8 10 5)
            (8 12 14 10)
            //(16 17 23 22)
            //(12 14 17 16)
            //(12 13 15 14)
        );
    }
    

    inlet
    {
        type patch;
        faces
        (
            (3 0 4 7)
            //(3 7 15 13)
        );
    }
    ground
    {
        type wall;
        faces
        (
           (0 3 2 1)
           (1 2 9 8)
           (8 9 13 12)
           //(3 13 12 2)
           //(2 12 16 9)
           //(9 16 22 19)
        );
    }
    top
    {
        type patch;
        faces
        (
           (5 6 7 4)
           (5 10 11 6)
           (14 15 11 10)
           //(7 6 14 15)
           //(6 11 17 14)
           //(21 23 17 11)
        );
    }
    symmetry
    {
	type symmetry;
	faces
	(
	   (3 2 6 7)
	   (9 11 6 2)
	   (13 15 11 9)
	);		
    }

   
   

    
);

mergePatchPairs
(
  

);


// ************************************************************************* //
